Circuit: * Z:\z\--mega--\converter-designs\bla\bla.asc

Per .tran options, skipping operating point for transient analysis.

pin: AVG(-v(in)*i(vin))=1753.75 FROM 0 TO 1e-006
pout: AVG(abs(v(o+,o-))*i(vout))=1703.54 FROM 0 TO 1e-006
psw: AVG(v(in,s1)*id(m1)+v(drv1,s1)*ig(m1) + v(s1,s2)*id(m2)+v(drv2,s2)*ig(m2) + v(in,s3)*id(m3)+v(drv3,s3)*ig(m3) + v(s3,s4)*id(m4)+v(drv4,s4)*ig(m4))=45.6984 FROM 0 TO 1e-006
pind: AVG(v(i+,o+)*i(l1))=761.089 FROM 0 TO 1e-006
vcpp: PP(v(o-,i-))=277.285 FROM 0 TO 1e-006


Date: Mon Jul 09 22:44:52 2018
Total elapsed time: 4.046 seconds.

tnom = 27
temp = 27
method = modified trap
totiter = 352238
traniter = 352238
tranpoints = 111013
accept = 87172
rejected = 23841
matrix size = 48
fillins = 52
solver = Normal
Matrix Compiler1: 5.82 KB object code size  2.3/1.7/[1.0]
Matrix Compiler2: 4.92 KB object code size  1.3/1.8/[1.0]

